*SPEF "IEEE 1481-1998"
*DESIGN "sg13g2_io"
*DATE "stat-sim klayout2spef --detail (EM)"
*VENDOR "stat-sim"
*PROGRAM "klayout2spef"
*VERSION "1.0"
*DESIGN_FLOW "EXTRACTION"
*DIVIDER /
*DELIMITER :
*BUS_DELIMITER [ ]
*T_UNIT 1 PS
*C_UNIT 1 FF
*R_UNIT 1 OHM
*L_UNIT 1 HENRY

*NAME_MAP
*1 pad
*2 iovss_gr
*3 guard
*4 drv_o_n
*5 iovss
*6 iovdd_esd
*7 drv_o_p
*8 iovdd
*9 vdd
*10 vss
*11 c2p_in
*12 nI3
*13 nI4
*14 nI5
*15 nI6
*16 nI7
*17 nI8

*D_NET *1 165.989
*CAP
1 *1 165.989
*RES
1 *1 *1:1 13.8053
2 *1:1 *1:2 14.4783
3 *1:2 *1:3 2.50864
4 *1:3 *1:4 2.50864
5 *1:4 *1:5 2.50864
6 *1:5 *1:6 0.511471
7 *1:6 *1:7 0.353159
8 *1:7 *1:8 0.0265957
9 *1:8 *1:9 0.02331
10 *1:9 *1:10 0.285714
11 *1:10 *1:11 0.285714
12 *1:11 *1:12 0.114286
13 *1:12 *1:13 0.0628571
*END

*D_NET *2 468.183
*CAP
1 *2 468.183
*RES
1 *2 *2:1 4.92117
2 *2:1 *2:2 34.7241
3 *2:2 *2:3 1.57298
4 *2:3 *2:4 1.11623
5 *2:4 *2:5 1.11623
6 *2:5 *2:6 0.227582
7 *2:6 *2:7 0.182363
8 *2:7 *2:8 0.0413223
9 *2:8 *2:9 0.0520833
10 *2:9 *2:10 0.03663
11 *2:10 *2:11 0.03663
12 *2:11 *2:12 0.00809717
13 *2:12 *2:13 0.00526316
*END

*D_NET *3 69.9536
*CAP
1 *3 69.9536
*RES
1 *3 *3:1 7.00638
*END

*D_NET *4 27.8033
*CAP
1 *4 27.8033
*RES
1 *4 *4:1 128.646
2 *4:1 *4:2 60.6451
3 *4:2 *4:3 1.11111
*END

*D_NET *5 122.039
*CAP
1 *5 122.039
*RES
1 *5 *5:1 0.447262
2 *5:1 *5:2 0.447262
3 *5:2 *5:3 0.447262
4 *5:3 *5:4 0.0911893
5 *5:4 *5:5 0.0686183
6 *5:5 *5:6 0.04662
7 *5:6 *5:7 0.04662
8 *5:7 *5:8 0.00956938
9 *5:8 *5:9 0.00578947
*END

*D_NET *6 212.192
*CAP
1 *6 212.192
*RES
1 *6 *6:1 20.5473
2 *6:1 *6:2 12.823
3 *6:2 *6:3 1.09098
4 *6:3 *6:4 0.447262
5 *6:4 *6:5 0.447262
6 *6:5 *6:6 0.0911893
7 *6:6 *6:7 0.0686183
8 *6:7 *6:8 0.0458716
9 *6:8 *6:9 0.0531915
10 *6:9 *6:10 0.04662
11 *6:10 *6:11 0.04662
12 *6:11 *6:12 0.00956938
13 *6:12 *6:13 0.00578947
*END

*D_NET *7 28.5942
*CAP
1 *7 28.5942
*RES
1 *7 *7:1 80.6716
2 *7:1 *7:2 37.4375
3 *7:2 *7:3 1.11111
*END

*D_NET *8 132.746
*CAP
1 *8 132.746
*RES
1 *8 *8:1 63.1185
2 *8:1 *8:2 5.15882
3 *8:2 *8:3 0.447262
4 *8:3 *8:4 0.447262
5 *8:4 *8:5 0.447262
6 *8:5 *8:6 0.0911893
7 *8:6 *8:7 0.0686183
8 *8:7 *8:8 10
9 *8:8 *8:9 10
10 *8:9 *8:10 0.04662
11 *8:10 *8:11 0.04662
12 *8:11 *8:12 0.00956938
13 *8:12 *8:13 0.00578947
*END

*D_NET *9 92.7484
*CAP
1 *9 92.7484
*RES
1 *9 *9:1 62.972
2 *9:1 *9:2 30.9313
3 *9:2 *9:3 0.574796
4 *9:3 *9:4 0.595
5 *9:4 *9:5 0.574796
6 *9:5 *9:6 0.117191
7 *9:6 *9:7 1.25
8 *9:7 *9:8 1.25
9 *9:8 *9:9 0.217391
10 *9:9 *9:10 0.0854701
11 *9:10 *9:11 0.0150376
*END

*D_NET *10 93.1782
*CAP
1 *10 93.1782
*RES
1 *10 *10:1 63.5845
2 *10:1 *10:2 30.9313
3 *10:2 *10:3 0.574796
4 *10:3 *10:4 0.595
5 *10:4 *10:5 0.574796
6 *10:5 *10:6 0.117191
7 *10:6 *10:7 1.25
8 *10:7 *10:8 1.25
9 *10:8 *10:9 0.217391
10 *10:9 *10:10 0.0854701
11 *10:10 *10:11 0.0150376
*END

*D_NET *11 9.074
*CAP
1 *11 9.074
*RES
1 *11 *11:1 7.50704
2 *11:1 *11:2 3.18967
3 *11:2 *11:3 1.42489
4 *11:3 *11:4 0.434783
5 *11:4 *11:5 2.22222
*END

*D_NET *12 0.586456
*CAP
1 *12 0.586456
*RES
1 *12 *12:1 4.18507
*END

*D_NET *13 0.492907
*CAP
1 *13 0.492907
*RES
1 *13 *13:1 4.08406
*END

*D_NET *14 2.25733
*CAP
1 *14 2.25733
*RES
1 *14 *14:1 8.81646
2 *14:1 *14:2 7.22901
3 *14:2 *14:3 0.869565
*END

*D_NET *15 0.586456
*CAP
1 *15 0.586456
*RES
1 *15 *15:1 4.18507
*END

*D_NET *16 0.492907
*CAP
1 *16 0.492907
*RES
1 *16 *16:1 4.08406
*END

*D_NET *17 2.25733
*CAP
1 *17 2.25733
*RES
1 *17 *17:1 8.81646
2 *17:1 *17:2 7.22901
3 *17:2 *17:3 0.869565
*END
