*SPEF "IEEE 1481-1998"
*DESIGN "sg13g2_io"
*DATE "stat-sim klayout2spef --detail (EM)"
*VENDOR "stat-sim"
*PROGRAM "klayout2spef"
*VERSION "1.0"
*DESIGN_FLOW "EXTRACTION"
*DIVIDER /
*DELIMITER :
*BUS_DELIMITER [ ]
*T_UNIT 1 PS
*C_UNIT 1 FF
*R_UNIT 1 OHM
*L_UNIT 1 HENRY

*NAME_MAP
*1 pad
*2 iovss_gr
*3 guard
*4 drv_o_n
*5 iovss
*6 iovdd_esd
*7 drv_o_p
*8 iovdd
*9 vdd
*10 vss
*11 c2p_in
*12 nI3
*13 nI4
*14 nI5
*15 nI6
*16 nI7
*17 nI8

*D_NET *1 165.989
*CAP
1 *1 165.989
*RES
1 *1 *1:1 58.4191
2 *1:1 *1:2 122.178
3 *1:2 *1:3 2.6137
4 *1:3 *1:4 2.6137
5 *1:4 *1:5 2.6137
6 *1:5 *1:6 0.5329
7 *1:6 *1:7 0.368
8 *1:7 *1:8 15040
9 *1:8 *1:9 17160
10 *1:9 *1:10 1400
11 *1:10 *1:11 1400
12 *1:11 *1:12 140
13 *1:12 *1:13 77
*END

*D_NET *2 468.183
*CAP
1 *2 468.183
*RES
1 *2 *2:1 35.0653
2 *2:1 *2:2 113.947
3 *2:2 *2:3 2.8449
4 *2:3 *2:4 1.439
5 *2:4 *2:5 1.439
6 *2:5 *2:6 0.2934
7 *2:6 *2:7 0.2317
8 *2:7 *2:8 9680
9 *2:8 *2:9 7680
10 *2:9 *2:10 10920
11 *2:10 *2:11 10920
12 *2:11 *2:12 1976
13 *2:12 *2:13 919.6
*END

*D_NET *3 69.9536
*CAP
1 *3 69.9536
*RES
1 *3 *3:1 39.2941
*END

*D_NET *4 27.8033
*CAP
1 *4 27.8033
*RES
1 *4 *4:1 103.829
2 *4:1 *4:2 83.9925
3 *4:2 *4:3 360
*END

*D_NET *5 122.039
*CAP
1 *5 122.039
*RES
1 *5 *5:1 0.562
2 *5:1 *5:2 0.562
3 *5:2 *5:3 0.562
4 *5:3 *5:4 0.1146
5 *5:4 *5:5 0.0846
6 *5:5 *5:6 8580
7 *5:6 *5:7 8580
8 *5:7 *5:8 1672
9 *5:8 *5:9 836
*END

*D_NET *6 212.192
*CAP
1 *6 212.192
*RES
1 *6 *6:1 117.186
2 *6:1 *6:2 123.849
3 *6:2 *6:3 3.3704
4 *6:3 *6:4 0.562
5 *6:4 *6:5 0.562
6 *6:5 *6:6 0.1146
7 *6:6 *6:7 0.0846
8 *6:7 *6:8 8720
9 *6:8 *6:9 7520
10 *6:9 *6:10 8580
11 *6:10 *6:11 8580
12 *6:11 *6:12 1672
13 *6:12 *6:13 836
*END

*D_NET *7 28.5942
*CAP
1 *7 28.5942
*RES
1 *7 *7:1 222.604
2 *7:1 *7:2 52.2005
3 *7:2 *7:3 360
*END

*D_NET *8 132.746
*CAP
1 *8 132.746
*RES
1 *8 *8:1 87.0294
2 *8:1 *8:2 5.2627
3 *8:2 *8:3 0.562
4 *8:3 *8:4 0.562
5 *8:4 *8:5 0.562
6 *8:5 *8:6 0.1146
7 *8:6 *8:7 0.0846
8 *8:7 *8:8 40
9 *8:8 *8:9 40
10 *8:9 *8:10 8580
11 *8:10 *8:11 8580
12 *8:11 *8:12 1672
13 *8:12 *8:13 836
*END

*D_NET *9 92.7484
*CAP
1 *9 92.7484
*RES
1 *9 *9:1 83.2112
2 *9:1 *9:2 2.6122
3 *9:2 *9:3 0.687
4 *9:3 *9:4 0.7226
5 *9:4 *9:5 0.687
6 *9:5 *9:6 0.1401
7 *9:6 *9:7 320
8 *9:7 *9:8 320
9 *9:8 *9:9 1840
10 *9:9 *9:10 4680
11 *9:10 *9:11 1064
*END

*D_NET *10 93.1782
*CAP
1 *10 93.1782
*RES
1 *10 *10:1 88.9769
2 *10:1 *10:2 2.6122
3 *10:2 *10:3 0.687
4 *10:3 *10:4 0.7226
5 *10:4 *10:5 0.687
6 *10:5 *10:6 0.1401
7 *10:6 *10:7 320
8 *10:7 *10:8 320
9 *10:8 *10:9 1840
10 *10:9 *10:10 4680
11 *10:10 *10:11 1064
*END

*D_NET *11 9.074
*CAP
1 *11 9.074
*RES
1 *11 *11:1 12.1323
2 *11:1 *11:2 8.1144
3 *11:2 *11:3 1.5317
4 *11:3 *11:4 920
5 *11:4 *11:5 180
*END

*D_NET *12 0.586456
*CAP
1 *12 0.586456
*RES
1 *12 *12:1 6.3267
*END

*D_NET *13 0.492907
*CAP
1 *13 0.492907
*RES
1 *13 *13:1 5.4684
*END

*D_NET *14 2.25733
*CAP
1 *14 2.25733
*RES
1 *14 *14:1 7.0784
2 *14:1 *14:2 8.831
3 *14:2 *14:3 460
*END

*D_NET *15 0.586456
*CAP
1 *15 0.586456
*RES
1 *15 *15:1 6.3267
*END

*D_NET *16 0.492907
*CAP
1 *16 0.492907
*RES
1 *16 *16:1 5.4684
*END

*D_NET *17 2.25733
*CAP
1 *17 2.25733
*RES
1 *17 *17:1 7.0784
2 *17:1 *17:2 8.831
3 *17:2 *17:3 460
*END
